# specific humidity for moist runs
 "TRACER", "atmos_mod", "sphum"
           "longname",     "specific humidity"
           "units",        "kg/kg"
       "profile_type", "fixed", "surface_value=3.e-6" /
# prognostic cloud water mixing ratio
# "TRACER", "atmos_mod", "liq_wat"
#           "longname",     "cloud water mixing ratio"
#           "units",        "kg/kg"
#       "profile_type", "fixed", "surface_value=1.e30" /
