 &fv_grid_nml
         grid_file = 'Data/inputs/lam_cmaq/INPUT/grid_spec.nc'
         mosaic_path = 'Data/inputs/lam_cmaq/INPUT/'
/

 &fv_core_nml
       layout   = 3,2
       io_layout = 1,1
       npx      = 46
       npy      = 25
       ntiles   = 1,
       npz    = 64
       !grid_type = -1
       make_nh = .T.
       fv_debug = .T.
       ncnst = 0
       range_warn = .T.
       reset_eta = .F.
       n_sponge = 20
       tau = 3.0
       rf_cutoff = 10.e2
       d2_bg_k1 = 0.16
       d2_bg_k2 = 0.02
       kord_tm = -10
       kord_mt =  10
       kord_wz =  10
       kord_tr =  10
       hydrostatic = .F.
       phys_hydrostatic = .F.
       use_hydro_pressure = .F.
       beta = 0.
       a_imp = 1.
       p_fac = 0.1
       k_split  = 2
       n_split  = 6
       nwat = 6
       na_init = 1
       d_ext = 0.0
       dnats = 1
       fv_sg_adj = 450
       d2_bg = 0.
       nord =  2
       dddmp = 0.1
       d4_bg = 0.08
       vtdm4 = 0.0
       ke_bg = 0.
       do_vort_damp = .T.
       external_ic = .T.
       external_eta = .T.
       gfs_phil = .false.
       nggps_ic = .T.
       mountain = .F.
       ncep_ic = .F.
       d_con = 1.0
       hord_mt =  6
       hord_vt = -5
       hord_tm = -5
       hord_dp = -5
       hord_tr = -8
       adjust_dry_mass = .F.
       consv_te = 0.
       do_sat_adj = .F.
       consv_am = .F.
       fill = .T.
       dwind_2d = .F.
       print_freq = 6
       warm_start = .F.
       no_dycore = .false.

       do_schmidt = .true.
       target_lat = 35.5
       target_lon = -97.5
       stretch_fac = 1.0
       n_zs_filter = 0 ! safety
       regional = .true.
       bc_update_interval = 3
       nrows_blend = 10
/
